mtd/3phase_linearization/4Bus_sets/4Bus-YD-Bal/4busYDBal_VLN_Node.Txt

LINE-GROUND and LINE-LINE VOLTAGES BY BUS & NODE

Bus       Node    VLN (kV)   Angle      pu     Base kV    Node-Node   VLL (kV)  Angle      pu

SOURCEBUS 1       7.1994 /_    0.0   0.99997    12.470        1-2      12.47 /_   30.0   0.99997
   -      2       7.1994 /_ -120.0   0.99997    12.470        2-3      12.47 /_  -90.0   0.99997
   -      3       7.1994 /_  120.0   0.99997    12.470        3-1      12.47 /_  150.0   0.99997
N2 ...... 1       7.1115 /_   -0.3   0.98776    12.470        1-2     12.338 /_   29.7   0.98945
   -      2       7.1319 /_ -120.4   0.99061    12.470        2-3     12.348 /_  -90.4   0.99024
   -      3       7.1229 /_  119.6   0.98936    12.470        3-1     12.321 /_  149.6   0.98805
   -      4    0.0035661 /_  169.5 0.00049532    12.470
N3 ...... 1        2.286 /_  -36.5    0.9518     4.160        1-2     3.9057 /_   -3.5   0.93886
   -      2       2.3453 /_ -151.5   0.97647     4.160        2-3     3.9148 /_ -123.6   0.94105
   -      3       2.1456 /_   87.2   0.89335     4.160        3-1     3.9093 /_  116.3   0.93973
N4 ...... 1       1.9818 /_  -41.6   0.82512     4.160        1-2     3.4373 /_   -7.8   0.82628
   -      2       2.1035 /_ -156.1   0.87579     4.160        2-3      3.497 /_ -129.3   0.84062
   -      3       1.8787 /_   81.1    0.7822     4.160        3-1     3.3883 /_  110.6   0.81449
